version 2
run NonBeaconMode-TXtoCoordinator-0-20150530-12:16:59-5892
attr configname NonBeaconMode-TXtoCoordinator
attr datetime 20150530-12:16:59
attr experiment NonBeaconMode-TXtoCoordinator
attr inifile omnetpp.ini
attr iterationvars ""
attr iterationvars2 $repetition=0
attr measurement ""
attr network ieee802154.simulations.net
attr processid 5892
attr repetition 0
attr replication #0
attr resultdir results
attr runnumber 0
attr seedset 0

